8
Lattice = "2.459492055030427 0.0 0.0 0.0 4.260013761090964 0.0 0.0 0.0 4.3 "
C 0.0 0.0 0.0
C 1.2297539725104514 2.129982600140777 0.0
C 1.2297320091264536 0.709949145690246 0.0
C 2.459485981636905 2.839931745831023 0.0
C 0.0 0.0 2.3
C 1.2297960273536976 2.130006880545482 2.3
C 1.2297960273536976 3.5500114675758034 2.3
C 0.0 1.4200045870303213 2.3
8
Lattice = "2.459492055030427 0.0 0.0 0.0 4.260013761090964 0.0 0.0 0.0 4.3 "
C 0.0 0.0 0.0
C 1.2297539725104514 2.129982600140777 0.0
C 1.2297320091264536 0.709949145690246 0.0
C 2.459485981636905 2.839931745831023 0.0
C 0.0 0.0 2.3
C 1.2297960273536976 2.130006880545482 2.3
C 1.2297960273536976 3.5500114675758034 2.3
C 0.0 1.4200045870303213 2.3
8
Lattice = "2.459492055030427 0.0 0.0 0.0 4.260013761090964 0.0 0.0 0.0 4.3 "
C 0.0 0.0 0.0
C 1.2297539725104514 2.129982600140777 0.0
C 1.2297320091264536 0.709949145690246 0.0
C 2.459485981636905 2.839931745831023 0.0
C 0.0 0.0 2.3
C 1.2297960273536976 2.130006880545482 2.3
C 1.2297960273536976 3.5500114675758034 2.3
C 0.0 1.4200045870303213 2.3
8
Lattice = "2.459492055030427 0.0 0.0 0.0 4.260013761090964 0.0 0.0 0.0 4.3 "
C 0.0 0.0 0.0
C 1.2297539725104514 2.129982600140777 0.0
C 1.2297320091264536 0.709949145690246 0.0
C 2.459485981636905 2.839931745831023 0.0
C 0.0 0.0 2.3
C 1.2297960273536976 2.130006880545482 2.3
C 1.2297960273536976 3.5500114675758034 2.3
C 0.0 1.4200045870303213 2.3
8
Lattice = "2.459492055030427 0.0 0.0 0.0 4.260013761090964 0.0 0.0 0.0 4.3 "
C 0.0 0.0 0.0
C 1.2297539725104514 2.129982600140777 0.0
C 1.2297320091264536 0.709949145690246 0.0
C 2.459485981636905 2.839931745831023 0.0
C 0.0 0.0 2.3
C 1.2297960273536976 2.130006880545482 2.3
C 1.2297960273536976 3.5500114675758034 2.3
C 0.0 1.4200045870303213 2.3
8
Lattice = "2.459492055030427 0.0 0.0 0.0 4.260013761090964 0.0 0.0 0.0 4.3 "
C 0.0 0.0 0.0
C 1.2297539725104514 2.129982600140777 0.0
C 1.2297320091264536 0.709949145690246 0.0
C 2.459485981636905 2.839931745831023 0.0
C 0.0 0.0 2.3
C 1.2297960273536976 2.130006880545482 2.3
C 1.2297960273536976 3.5500114675758034 2.3
C 0.0 1.4200045870303213 2.3
8
Lattice = "2.459492055030427 0.0 0.0 0.0 4.260013761090964 0.0 0.0 0.0 4.3 "
C 0.0 0.0 0.0
C 1.2297539725104514 2.129982600140777 0.0
C 1.2297320091264536 0.709949145690246 0.0
C 2.459485981636905 2.839931745831023 0.0
C 0.0 0.0 2.3
C 1.2297960273536976 2.130006880545482 2.3
C 1.2297960273536976 3.5500114675758034 2.3
C 0.0 1.4200045870303213 2.3
